[spawn]
runner_type=process
workers=3

[nrel]
turbsim_exe=C:\dev\spawn-wind\example_data\bin\TurbSim.exe
fast_exe=C:\AeroElastic\openFASTv2.1\openfast_x64_Double.exe
turbsim_base_file=C:\dev\fast-models\IEA-3.4-130-RWT\TurbSim.inp
fast_base_file=C:\dev\fast-models\IEA-3.4-130-RWT\openfast\IEA-3.4-130-RWT.fst
fast_version=v8
fast_working_dir=C:\dev\fast-models\IEA-3.4-130-RWT
turbsim_working_dir=C:\dev\fast-models\IEA-3.4-130-RWT

[spawnwind]
runner_type=process
workers=4
turbsim_exe=C:\dev\spawn-wind\example_data\bin\TurbSim.exe
fast_exe=C:\AeroElastic\openFASTv2.1\openfast_x64_Double.exe
turbsim_base_file=C:\dev\fast-models\IEA-3.4-130-RWT\TurbSim.inp
fast_base_file=C:\dev\fast-models\IEA-3.4-130-RWT\openfast\IEA-3.4-130-RWT.fst
fast_version=v8
fast_working_dir=C:\dev\fast-models\IEA-3.4-130-RWT
turbsim_working_dir=C:\dev\fast-models\IEA-3.4-130-RWT